[root]
type=Root
children=system
eventq_index=0
full_system=true
sim_quantum=1000000000
time_sync_enable=false
time_sync_period=100000000000
time_sync_spin_threshold=100000000

[system]
type=LinuxX86System
children=acpi_description_table_pointer apicbridge atomicCpu bridge clk_domain cpu dvfs_handler e820_table intel_mp_pointer intel_mp_table intrctrl iobus iocache kvm_vm l3bus l3cache mem_cntrls0 mem_cntrls1 mem_cntrls2 mem_cntrls3 mem_cntrls4 mem_cntrls5 mem_cntrls6 mem_cntrls7 mem_cntrls8 membus pc smbios_table timingCpu
acpi_description_table_pointer=system.acpi_description_table_pointer
boot_osflags=earlyprintk=ttyS0 console=ttyS0 lpj=7999923 root=/dev/hda1
cache_line_size=64
e820_table=system.e820_table
eventq_index=0
exit_on_work_items=true
init_param=0
intel_mp_pointer=system.intel_mp_pointer
intel_mp_table=system.intel_mp_table
kernel=linux-4.19.83-stable/vmlinux-4.19.83
kernel_addr_check=true
kernel_extras=
kernel_extras_addrs=
kvm_vm=system.kvm_vm
load_addr_mask=18446744073709551615
load_offset=0
m5ops_base=4294901760
mem_mode=atomic_noncaching
mem_ranges=0:104857600 3221225472:3222274048 4294967296:8589934592
memories=system.mem_cntrls0 system.mem_cntrls1 system.mem_cntrls2 system.mem_cntrls3 system.mem_cntrls4 system.mem_cntrls5 system.mem_cntrls6 system.mem_cntrls7 system.mem_cntrls8
mmap_using_noreserve=false
multi_thread=false
num_work_ids=16
readfile=/autoperf/results/run_parsec/swaptions/simlarge/kvm/1/run_swaptions
redirect_paths=
smbios_table=system.smbios_table
symbolfile=
thermal_components=
thermal_model=Null
work_begin_ckpt_count=0
work_begin_cpu_id_exit=-1
work_begin_exit_count=0
work_cpus_ckpt_count=0
work_end_ckpt_count=0
work_end_exit_count=0
work_item_id=-1
system_port=system.membus.slave[0]

[system.acpi_description_table_pointer]
type=X86ACPIRSDP
children=xsdt
eventq_index=0
oem_id=
revision=2
rsdt=Null
xsdt=system.acpi_description_table_pointer.xsdt

[system.acpi_description_table_pointer.xsdt]
type=X86ACPIXSDT
creator_id=
creator_revision=0
entries=
eventq_index=0
oem_id=
oem_revision=0
oem_table_id=

[system.apicbridge]
type=Bridge
clk_domain=system.clk_domain
default_p_state=UNDEFINED
delay=50000
eventq_index=0
p_state_clk_gate_bins=20
p_state_clk_gate_max=1000000000000
p_state_clk_gate_min=1000
power_model=
ranges=11529215046068469760:11529215046068473855
req_size=16
resp_size=16
master=system.membus.slave[1]
slave=system.iobus.master[0]

[system.atomicCpu]
type=AtomicSimpleCPU
children=dtb isa itb tracer
branchPred=Null
checker=Null
clk_domain=system.clk_domain
cpu_id=0
default_p_state=UNDEFINED
do_checkpoint_insts=true
do_quiesce=true
do_statistics_insts=true
dtb=system.atomicCpu.dtb
eventq_index=0
function_trace=false
function_trace_start=0
interrupts=
isa=system.atomicCpu.isa
itb=system.atomicCpu.itb
max_insts_all_threads=0
max_insts_any_thread=0
numThreads=1
p_state_clk_gate_bins=20
p_state_clk_gate_max=1000000000000
p_state_clk_gate_min=1000
power_gating_on_idle=false
power_model=
profile=0
progress_interval=0
pwr_gating_latency=300
simpoint_start_insts=
simulate_data_stalls=false
simulate_inst_stalls=false
socket_id=0
switched_out=true
syscallRetryLatency=10000
system=system
tracer=system.atomicCpu.tracer
wait_for_remote_gdb=false
width=1
workload=

[system.atomicCpu.dtb]
type=X86TLB
children=walker
eventq_index=0
size=64
system=system
walker=system.atomicCpu.dtb.walker

[system.atomicCpu.dtb.walker]
type=X86PagetableWalker
clk_domain=system.clk_domain
default_p_state=UNDEFINED
eventq_index=0
num_squash_per_cycle=4
p_state_clk_gate_bins=20
p_state_clk_gate_max=1000000000000
p_state_clk_gate_min=1000
power_model=
system=system

[system.atomicCpu.isa]
type=X86ISA
eventq_index=0

[system.atomicCpu.itb]
type=X86TLB
children=walker
eventq_index=0
size=64
system=system
walker=system.atomicCpu.itb.walker

[system.atomicCpu.itb.walker]
type=X86PagetableWalker
clk_domain=system.clk_domain
default_p_state=UNDEFINED
eventq_index=0
num_squash_per_cycle=4
p_state_clk_gate_bins=20
p_state_clk_gate_max=1000000000000
p_state_clk_gate_min=1000
power_model=
system=system

[system.atomicCpu.tracer]
type=ExeTracer
eventq_index=0

[system.bridge]
type=Bridge
clk_domain=system.clk_domain
default_p_state=UNDEFINED
delay=50000
eventq_index=0
p_state_clk_gate_bins=20
p_state_clk_gate_max=1000000000000
p_state_clk_gate_min=1000
power_model=
ranges=3221225472:4294901760 9223372036854775808:11529215046068469759 13835058055282163712:18446744073709551615
req_size=16
resp_size=16
master=system.iobus.slave[0]
slave=system.membus.master[0]

[system.clk_domain]
type=SrcClockDomain
children=voltage_domain
clock=435
domain_id=-1
eventq_index=0
init_perf_level=0
voltage_domain=system.clk_domain.voltage_domain

[system.clk_domain.voltage_domain]
type=VoltageDomain
eventq_index=0
voltage=1.0

[system.cpu]
type=X86KvmCPU
children=dcache dtb icache interrupts isa itb l2bus l2cache mmucache tracer
alwaysSyncTC=false
checker=Null
clk_domain=system.clk_domain
cpu_id=0
default_p_state=UNDEFINED
do_checkpoint_insts=true
do_quiesce=true
do_statistics_insts=true
dtb=system.cpu.dtb
eventq_index=1
function_trace=false
function_trace_start=0
hostFactor=1.0
hostFreq=500
interrupts=system.cpu.interrupts
isa=system.cpu.isa
itb=system.cpu.itb
max_insts_all_threads=0
max_insts_any_thread=0
numThreads=1
p_state_clk_gate_bins=20
p_state_clk_gate_max=1000000000000
p_state_clk_gate_min=1000
power_gating_on_idle=false
power_model=
profile=0
progress_interval=0
pwr_gating_latency=300
simpoint_start_insts=
socket_id=0
switched_out=false
syscallRetryLatency=10000
system=system
tracer=system.cpu.tracer
useCoalescedMMIO=false
usePerfOverflow=false
useXSave=true
wait_for_remote_gdb=false
workload=
dcache_port=system.cpu.dcache.cpu_side
icache_port=system.cpu.icache.cpu_side

[system.cpu.dcache]
type=Cache
children=prefetcher replacement_policy tags
addr_ranges=0:18446744073709551615
assoc=8
clk_domain=system.clk_domain
clusivity=mostly_incl
compressor=Null
data_latency=1
default_p_state=UNDEFINED
demand_mshr_reserve=1
eventq_index=0
is_read_only=false
max_miss_count=0
mshrs=16
p_state_clk_gate_bins=20
p_state_clk_gate_max=1000000000000
p_state_clk_gate_min=1000
power_model=
prefetch_on_access=false
prefetcher=system.cpu.dcache.prefetcher
replacement_policy=system.cpu.dcache.replacement_policy
response_latency=1
sequential_access=false
size=32768
system=system
tag_latency=1
tags=system.cpu.dcache.tags
tgts_per_mshr=20
warmup_percentage=0
write_allocator=Null
write_buffers=8
writeback_clean=true
cpu_side=system.cpu.dcache_port
mem_side=system.cpu.l2bus.slave[1]

[system.cpu.dcache.prefetcher]
type=StridePrefetcher
children=replacement_policy
block_size=64
cache_snoop=false
clk_domain=system.clk_domain
default_p_state=UNDEFINED
degree=4
eventq_index=0
latency=1
max_conf=7
max_prefetch_requests_with_pending_translation=32
min_conf=0
on_data=true
on_inst=false
on_miss=false
on_read=true
on_write=true
p_state_clk_gate_bins=20
p_state_clk_gate_max=1000000000000
p_state_clk_gate_min=1000
power_model=
prefetch_on_access=false
queue_filter=true
queue_size=32
queue_squash=true
replacement_policy=system.cpu.dcache.prefetcher.replacement_policy
start_conf=4
sys=system
table_assoc=4
table_sets=16
tag_prefetch=true
thresh_conf=4
throttle_control_percentage=0
use_master_id=true
use_virtual_addresses=false

[system.cpu.dcache.prefetcher.replacement_policy]
type=RandomRP
eventq_index=0

[system.cpu.dcache.replacement_policy]
type=LRURP
eventq_index=0

[system.cpu.dcache.tags]
type=BaseSetAssoc
children=indexing_policy
assoc=8
block_size=64
clk_domain=system.clk_domain
default_p_state=UNDEFINED
entry_size=64
eventq_index=0
indexing_policy=system.cpu.dcache.tags.indexing_policy
p_state_clk_gate_bins=20
p_state_clk_gate_max=1000000000000
p_state_clk_gate_min=1000
power_model=
replacement_policy=system.cpu.dcache.replacement_policy
sequential_access=false
size=32768
system=system
tag_latency=1
warmup_percentage=0

[system.cpu.dcache.tags.indexing_policy]
type=SetAssociative
assoc=8
entry_size=64
eventq_index=0
size=32768

[system.cpu.dtb]
type=X86TLB
children=walker
eventq_index=0
size=64
system=system
walker=system.cpu.dtb.walker

[system.cpu.dtb.walker]
type=X86PagetableWalker
clk_domain=system.clk_domain
default_p_state=UNDEFINED
eventq_index=0
num_squash_per_cycle=4
p_state_clk_gate_bins=20
p_state_clk_gate_max=1000000000000
p_state_clk_gate_min=1000
power_model=
system=system
port=system.cpu.mmucache.mmubus.slave[1]

[system.cpu.icache]
type=Cache
children=prefetcher replacement_policy tags
addr_ranges=0:18446744073709551615
assoc=8
clk_domain=system.clk_domain
clusivity=mostly_incl
compressor=Null
data_latency=1
default_p_state=UNDEFINED
demand_mshr_reserve=1
eventq_index=0
is_read_only=false
max_miss_count=0
mshrs=16
p_state_clk_gate_bins=20
p_state_clk_gate_max=1000000000000
p_state_clk_gate_min=1000
power_model=
prefetch_on_access=false
prefetcher=system.cpu.icache.prefetcher
replacement_policy=system.cpu.icache.replacement_policy
response_latency=1
sequential_access=false
size=32768
system=system
tag_latency=1
tags=system.cpu.icache.tags
tgts_per_mshr=20
warmup_percentage=0
write_allocator=Null
write_buffers=8
writeback_clean=true
cpu_side=system.cpu.icache_port
mem_side=system.cpu.l2bus.slave[0]

[system.cpu.icache.prefetcher]
type=StridePrefetcher
children=replacement_policy
block_size=64
cache_snoop=false
clk_domain=system.clk_domain
default_p_state=UNDEFINED
degree=4
eventq_index=0
latency=1
max_conf=7
max_prefetch_requests_with_pending_translation=32
min_conf=0
on_data=true
on_inst=false
on_miss=false
on_read=true
on_write=true
p_state_clk_gate_bins=20
p_state_clk_gate_max=1000000000000
p_state_clk_gate_min=1000
power_model=
prefetch_on_access=false
queue_filter=true
queue_size=32
queue_squash=true
replacement_policy=system.cpu.icache.prefetcher.replacement_policy
start_conf=4
sys=system
table_assoc=4
table_sets=16
tag_prefetch=true
thresh_conf=4
throttle_control_percentage=0
use_master_id=true
use_virtual_addresses=false

[system.cpu.icache.prefetcher.replacement_policy]
type=RandomRP
eventq_index=0

[system.cpu.icache.replacement_policy]
type=LRURP
eventq_index=0

[system.cpu.icache.tags]
type=BaseSetAssoc
children=indexing_policy
assoc=8
block_size=64
clk_domain=system.clk_domain
default_p_state=UNDEFINED
entry_size=64
eventq_index=0
indexing_policy=system.cpu.icache.tags.indexing_policy
p_state_clk_gate_bins=20
p_state_clk_gate_max=1000000000000
p_state_clk_gate_min=1000
power_model=
replacement_policy=system.cpu.icache.replacement_policy
sequential_access=false
size=32768
system=system
tag_latency=1
warmup_percentage=0

[system.cpu.icache.tags.indexing_policy]
type=SetAssociative
assoc=8
entry_size=64
eventq_index=0
size=32768

[system.cpu.interrupts]
type=X86LocalApic
children=clk_domain
clk_domain=system.cpu.interrupts.clk_domain
eventq_index=0
int_latency=1000
pio_latency=100000
system=system
int_master=system.membus.slave[4]
int_slave=system.membus.master[2]
pio=system.membus.master[1]

[system.cpu.interrupts.clk_domain]
type=DerivedClockDomain
clk_divider=16
clk_domain=system.clk_domain
eventq_index=0

[system.cpu.isa]
type=X86ISA
eventq_index=0

[system.cpu.itb]
type=X86TLB
children=walker
eventq_index=0
size=64
system=system
walker=system.cpu.itb.walker

[system.cpu.itb.walker]
type=X86PagetableWalker
clk_domain=system.clk_domain
default_p_state=UNDEFINED
eventq_index=0
num_squash_per_cycle=4
p_state_clk_gate_bins=20
p_state_clk_gate_max=1000000000000
p_state_clk_gate_min=1000
power_model=
system=system
port=system.cpu.mmucache.mmubus.slave[0]

[system.cpu.l2bus]
type=CoherentXBar
children=snoop_filter
clk_domain=system.clk_domain
default_p_state=UNDEFINED
eventq_index=0
forward_latency=0
frontend_latency=1
max_outstanding_snoops=512
max_routing_table_size=512
p_state_clk_gate_bins=20
p_state_clk_gate_max=1000000000000
p_state_clk_gate_min=1000
point_of_coherency=false
point_of_unification=true
power_model=
response_latency=1
snoop_filter=system.cpu.l2bus.snoop_filter
snoop_response_latency=1
system=system
use_default_range=false
width=32
master=system.cpu.l2cache.cpu_side
slave=system.cpu.icache.mem_side system.cpu.dcache.mem_side system.cpu.mmucache.mem_side

[system.cpu.l2bus.snoop_filter]
type=SnoopFilter
eventq_index=0
lookup_latency=0
max_capacity=8388608
system=system

[system.cpu.l2cache]
type=Cache
children=prefetcher replacement_policy tags
addr_ranges=0:18446744073709551615
assoc=16
clk_domain=system.clk_domain
clusivity=mostly_incl
compressor=Null
data_latency=10
default_p_state=UNDEFINED
demand_mshr_reserve=1
eventq_index=0
is_read_only=false
max_miss_count=0
mshrs=20
p_state_clk_gate_bins=20
p_state_clk_gate_max=1000000000000
p_state_clk_gate_min=1000
power_model=
prefetch_on_access=false
prefetcher=system.cpu.l2cache.prefetcher
replacement_policy=system.cpu.l2cache.replacement_policy
response_latency=1
sequential_access=false
size=262144
system=system
tag_latency=10
tags=system.cpu.l2cache.tags
tgts_per_mshr=12
warmup_percentage=0
write_allocator=Null
write_buffers=8
writeback_clean=true
cpu_side=system.cpu.l2bus.master[0]
mem_side=system.l3bus.slave[0]

[system.cpu.l2cache.prefetcher]
type=StridePrefetcher
children=replacement_policy
block_size=64
cache_snoop=false
clk_domain=system.clk_domain
default_p_state=UNDEFINED
degree=4
eventq_index=0
latency=1
max_conf=7
max_prefetch_requests_with_pending_translation=32
min_conf=0
on_data=true
on_inst=false
on_miss=false
on_read=true
on_write=true
p_state_clk_gate_bins=20
p_state_clk_gate_max=1000000000000
p_state_clk_gate_min=1000
power_model=
prefetch_on_access=false
queue_filter=true
queue_size=32
queue_squash=true
replacement_policy=system.cpu.l2cache.prefetcher.replacement_policy
start_conf=4
sys=system
table_assoc=4
table_sets=16
tag_prefetch=true
thresh_conf=4
throttle_control_percentage=0
use_master_id=true
use_virtual_addresses=false

[system.cpu.l2cache.prefetcher.replacement_policy]
type=RandomRP
eventq_index=0

[system.cpu.l2cache.replacement_policy]
type=LRURP
eventq_index=0

[system.cpu.l2cache.tags]
type=BaseSetAssoc
children=indexing_policy
assoc=16
block_size=64
clk_domain=system.clk_domain
default_p_state=UNDEFINED
entry_size=64
eventq_index=0
indexing_policy=system.cpu.l2cache.tags.indexing_policy
p_state_clk_gate_bins=20
p_state_clk_gate_max=1000000000000
p_state_clk_gate_min=1000
power_model=
replacement_policy=system.cpu.l2cache.replacement_policy
sequential_access=false
size=262144
system=system
tag_latency=10
warmup_percentage=0

[system.cpu.l2cache.tags.indexing_policy]
type=SetAssociative
assoc=16
entry_size=64
eventq_index=0
size=262144

[system.cpu.mmucache]
type=Cache
children=mmubus replacement_policy tags
addr_ranges=0:18446744073709551615
assoc=4
clk_domain=system.clk_domain
clusivity=mostly_incl
compressor=Null
data_latency=1
default_p_state=UNDEFINED
demand_mshr_reserve=1
eventq_index=0
is_read_only=false
max_miss_count=0
mshrs=20
p_state_clk_gate_bins=20
p_state_clk_gate_max=1000000000000
p_state_clk_gate_min=1000
power_model=
prefetch_on_access=false
prefetcher=Null
replacement_policy=system.cpu.mmucache.replacement_policy
response_latency=1
sequential_access=false
size=8192
system=system
tag_latency=1
tags=system.cpu.mmucache.tags
tgts_per_mshr=12
warmup_percentage=0
write_allocator=Null
write_buffers=8
writeback_clean=true
cpu_side=system.cpu.mmucache.mmubus.master[0]
mem_side=system.cpu.l2bus.slave[2]

[system.cpu.mmucache.mmubus]
type=CoherentXBar
children=snoop_filter
clk_domain=system.clk_domain
default_p_state=UNDEFINED
eventq_index=0
forward_latency=0
frontend_latency=1
max_outstanding_snoops=512
max_routing_table_size=512
p_state_clk_gate_bins=20
p_state_clk_gate_max=1000000000000
p_state_clk_gate_min=1000
point_of_coherency=false
point_of_unification=true
power_model=
response_latency=1
snoop_filter=system.cpu.mmucache.mmubus.snoop_filter
snoop_response_latency=1
system=system
use_default_range=false
width=32
master=system.cpu.mmucache.cpu_side
slave=system.cpu.itb.walker.port system.cpu.dtb.walker.port

[system.cpu.mmucache.mmubus.snoop_filter]
type=SnoopFilter
eventq_index=0
lookup_latency=0
max_capacity=8388608
system=system

[system.cpu.mmucache.replacement_policy]
type=LRURP
eventq_index=0

[system.cpu.mmucache.tags]
type=BaseSetAssoc
children=indexing_policy
assoc=4
block_size=64
clk_domain=system.clk_domain
default_p_state=UNDEFINED
entry_size=64
eventq_index=0
indexing_policy=system.cpu.mmucache.tags.indexing_policy
p_state_clk_gate_bins=20
p_state_clk_gate_max=1000000000000
p_state_clk_gate_min=1000
power_model=
replacement_policy=system.cpu.mmucache.replacement_policy
sequential_access=false
size=8192
system=system
tag_latency=1
warmup_percentage=0

[system.cpu.mmucache.tags.indexing_policy]
type=SetAssociative
assoc=4
entry_size=64
eventq_index=0
size=8192

[system.cpu.tracer]
type=ExeTracer
eventq_index=0

[system.dvfs_handler]
type=DVFSHandler
domains=
enable=false
eventq_index=0
sys_clk_domain=system.clk_domain
transition_latency=100000000

[system.e820_table]
type=X86E820Table
children=entries0 entries1 entries2 entries3 entries4 entries5
entries=system.e820_table.entries0 system.e820_table.entries1 system.e820_table.entries2 system.e820_table.entries3 system.e820_table.entries4 system.e820_table.entries5
eventq_index=0

[system.e820_table.entries0]
type=X86E820Entry
addr=0
eventq_index=0
range_type=1
size=654336

[system.e820_table.entries1]
type=X86E820Entry
addr=654336
eventq_index=0
range_type=2
size=394240

[system.e820_table.entries2]
type=X86E820Entry
addr=1048576
eventq_index=0
range_type=1
size=103809024

[system.e820_table.entries3]
type=X86E820Entry
addr=104857600
eventq_index=0
range_type=2
size=3116367872

[system.e820_table.entries4]
type=X86E820Entry
addr=4294901760
eventq_index=0
range_type=2
size=65536

[system.e820_table.entries5]
type=X86E820Entry
addr=4294967296
eventq_index=0
range_type=1
size=4294967296

[system.intel_mp_pointer]
type=X86IntelMPFloatingPointer
default_config=0
eventq_index=0
imcr_present=true
spec_rev=4

[system.intel_mp_table]
type=X86IntelMPConfigTable
children=base_entries00 base_entries01 base_entries02 base_entries03 base_entries04 base_entries05 base_entries06 base_entries07 base_entries08 base_entries09 base_entries10 base_entries11 base_entries12 base_entries13 base_entries14 base_entries15 base_entries16 base_entries17 base_entries18 base_entries19 base_entries20 base_entries21 base_entries22 base_entries23 base_entries24 base_entries25 base_entries26 base_entries27 base_entries28 base_entries29 base_entries30 base_entries31 base_entries32 ext_entries
base_entries=system.intel_mp_table.base_entries00 system.intel_mp_table.base_entries01 system.intel_mp_table.base_entries02 system.intel_mp_table.base_entries03 system.intel_mp_table.base_entries04 system.intel_mp_table.base_entries05 system.intel_mp_table.base_entries06 system.intel_mp_table.base_entries07 system.intel_mp_table.base_entries08 system.intel_mp_table.base_entries09 system.intel_mp_table.base_entries10 system.intel_mp_table.base_entries11 system.intel_mp_table.base_entries12 system.intel_mp_table.base_entries13 system.intel_mp_table.base_entries14 system.intel_mp_table.base_entries15 system.intel_mp_table.base_entries16 system.intel_mp_table.base_entries17 system.intel_mp_table.base_entries18 system.intel_mp_table.base_entries19 system.intel_mp_table.base_entries20 system.intel_mp_table.base_entries21 system.intel_mp_table.base_entries22 system.intel_mp_table.base_entries23 system.intel_mp_table.base_entries24 system.intel_mp_table.base_entries25 system.intel_mp_table.base_entries26 system.intel_mp_table.base_entries27 system.intel_mp_table.base_entries28 system.intel_mp_table.base_entries29 system.intel_mp_table.base_entries30 system.intel_mp_table.base_entries31 system.intel_mp_table.base_entries32
eventq_index=0
ext_entries=system.intel_mp_table.ext_entries
local_apic=4276092928
oem_id=
oem_table_addr=0
oem_table_size=0
product_id=
spec_rev=4

[system.intel_mp_table.base_entries00]
type=X86IntelMPProcessor
bootstrap=true
enable=true
eventq_index=0
family=0
feature_flags=0
local_apic_id=0
local_apic_version=20
model=0
stepping=0

[system.intel_mp_table.base_entries01]
type=X86IntelMPIOAPIC
address=4273995776
enable=true
eventq_index=0
id=1
version=17

[system.intel_mp_table.base_entries02]
type=X86IntelMPBus
bus_id=0
bus_type=PCI   
eventq_index=0

[system.intel_mp_table.base_entries03]
type=X86IntelMPBus
bus_id=1
bus_type=ISA   
eventq_index=0

[system.intel_mp_table.base_entries04]
type=X86IntelMPIOIntAssignment
dest_io_apic_id=1
dest_io_apic_intin=16
eventq_index=0
interrupt_type=INT
polarity=ConformPolarity
source_bus_id=0
source_bus_irq=16
trigger=ConformTrigger

[system.intel_mp_table.base_entries05]
type=X86IntelMPIOIntAssignment
dest_io_apic_id=1
dest_io_apic_intin=0
eventq_index=0
interrupt_type=ExtInt
polarity=ConformPolarity
source_bus_id=1
source_bus_irq=0
trigger=ConformTrigger

[system.intel_mp_table.base_entries06]
type=X86IntelMPIOIntAssignment
dest_io_apic_id=1
dest_io_apic_intin=2
eventq_index=0
interrupt_type=INT
polarity=ConformPolarity
source_bus_id=1
source_bus_irq=0
trigger=ConformTrigger

[system.intel_mp_table.base_entries07]
type=X86IntelMPIOIntAssignment
dest_io_apic_id=1
dest_io_apic_intin=0
eventq_index=0
interrupt_type=ExtInt
polarity=ConformPolarity
source_bus_id=1
source_bus_irq=1
trigger=ConformTrigger

[system.intel_mp_table.base_entries08]
type=X86IntelMPIOIntAssignment
dest_io_apic_id=1
dest_io_apic_intin=1
eventq_index=0
interrupt_type=INT
polarity=ConformPolarity
source_bus_id=1
source_bus_irq=1
trigger=ConformTrigger

[system.intel_mp_table.base_entries09]
type=X86IntelMPIOIntAssignment
dest_io_apic_id=1
dest_io_apic_intin=0
eventq_index=0
interrupt_type=ExtInt
polarity=ConformPolarity
source_bus_id=1
source_bus_irq=3
trigger=ConformTrigger

[system.intel_mp_table.base_entries10]
type=X86IntelMPIOIntAssignment
dest_io_apic_id=1
dest_io_apic_intin=3
eventq_index=0
interrupt_type=INT
polarity=ConformPolarity
source_bus_id=1
source_bus_irq=3
trigger=ConformTrigger

[system.intel_mp_table.base_entries11]
type=X86IntelMPIOIntAssignment
dest_io_apic_id=1
dest_io_apic_intin=0
eventq_index=0
interrupt_type=ExtInt
polarity=ConformPolarity
source_bus_id=1
source_bus_irq=4
trigger=ConformTrigger

[system.intel_mp_table.base_entries12]
type=X86IntelMPIOIntAssignment
dest_io_apic_id=1
dest_io_apic_intin=4
eventq_index=0
interrupt_type=INT
polarity=ConformPolarity
source_bus_id=1
source_bus_irq=4
trigger=ConformTrigger

[system.intel_mp_table.base_entries13]
type=X86IntelMPIOIntAssignment
dest_io_apic_id=1
dest_io_apic_intin=0
eventq_index=0
interrupt_type=ExtInt
polarity=ConformPolarity
source_bus_id=1
source_bus_irq=5
trigger=ConformTrigger

[system.intel_mp_table.base_entries14]
type=X86IntelMPIOIntAssignment
dest_io_apic_id=1
dest_io_apic_intin=5
eventq_index=0
interrupt_type=INT
polarity=ConformPolarity
source_bus_id=1
source_bus_irq=5
trigger=ConformTrigger

[system.intel_mp_table.base_entries15]
type=X86IntelMPIOIntAssignment
dest_io_apic_id=1
dest_io_apic_intin=0
eventq_index=0
interrupt_type=ExtInt
polarity=ConformPolarity
source_bus_id=1
source_bus_irq=6
trigger=ConformTrigger

[system.intel_mp_table.base_entries16]
type=X86IntelMPIOIntAssignment
dest_io_apic_id=1
dest_io_apic_intin=6
eventq_index=0
interrupt_type=INT
polarity=ConformPolarity
source_bus_id=1
source_bus_irq=6
trigger=ConformTrigger

[system.intel_mp_table.base_entries17]
type=X86IntelMPIOIntAssignment
dest_io_apic_id=1
dest_io_apic_intin=0
eventq_index=0
interrupt_type=ExtInt
polarity=ConformPolarity
source_bus_id=1
source_bus_irq=7
trigger=ConformTrigger

[system.intel_mp_table.base_entries18]
type=X86IntelMPIOIntAssignment
dest_io_apic_id=1
dest_io_apic_intin=7
eventq_index=0
interrupt_type=INT
polarity=ConformPolarity
source_bus_id=1
source_bus_irq=7
trigger=ConformTrigger

[system.intel_mp_table.base_entries19]
type=X86IntelMPIOIntAssignment
dest_io_apic_id=1
dest_io_apic_intin=0
eventq_index=0
interrupt_type=ExtInt
polarity=ConformPolarity
source_bus_id=1
source_bus_irq=8
trigger=ConformTrigger

[system.intel_mp_table.base_entries20]
type=X86IntelMPIOIntAssignment
dest_io_apic_id=1
dest_io_apic_intin=8
eventq_index=0
interrupt_type=INT
polarity=ConformPolarity
source_bus_id=1
source_bus_irq=8
trigger=ConformTrigger

[system.intel_mp_table.base_entries21]
type=X86IntelMPIOIntAssignment
dest_io_apic_id=1
dest_io_apic_intin=0
eventq_index=0
interrupt_type=ExtInt
polarity=ConformPolarity
source_bus_id=1
source_bus_irq=9
trigger=ConformTrigger

[system.intel_mp_table.base_entries22]
type=X86IntelMPIOIntAssignment
dest_io_apic_id=1
dest_io_apic_intin=9
eventq_index=0
interrupt_type=INT
polarity=ConformPolarity
source_bus_id=1
source_bus_irq=9
trigger=ConformTrigger

[system.intel_mp_table.base_entries23]
type=X86IntelMPIOIntAssignment
dest_io_apic_id=1
dest_io_apic_intin=0
eventq_index=0
interrupt_type=ExtInt
polarity=ConformPolarity
source_bus_id=1
source_bus_irq=10
trigger=ConformTrigger

[system.intel_mp_table.base_entries24]
type=X86IntelMPIOIntAssignment
dest_io_apic_id=1
dest_io_apic_intin=10
eventq_index=0
interrupt_type=INT
polarity=ConformPolarity
source_bus_id=1
source_bus_irq=10
trigger=ConformTrigger

[system.intel_mp_table.base_entries25]
type=X86IntelMPIOIntAssignment
dest_io_apic_id=1
dest_io_apic_intin=0
eventq_index=0
interrupt_type=ExtInt
polarity=ConformPolarity
source_bus_id=1
source_bus_irq=11
trigger=ConformTrigger

[system.intel_mp_table.base_entries26]
type=X86IntelMPIOIntAssignment
dest_io_apic_id=1
dest_io_apic_intin=11
eventq_index=0
interrupt_type=INT
polarity=ConformPolarity
source_bus_id=1
source_bus_irq=11
trigger=ConformTrigger

[system.intel_mp_table.base_entries27]
type=X86IntelMPIOIntAssignment
dest_io_apic_id=1
dest_io_apic_intin=0
eventq_index=0
interrupt_type=ExtInt
polarity=ConformPolarity
source_bus_id=1
source_bus_irq=12
trigger=ConformTrigger

[system.intel_mp_table.base_entries28]
type=X86IntelMPIOIntAssignment
dest_io_apic_id=1
dest_io_apic_intin=12
eventq_index=0
interrupt_type=INT
polarity=ConformPolarity
source_bus_id=1
source_bus_irq=12
trigger=ConformTrigger

[system.intel_mp_table.base_entries29]
type=X86IntelMPIOIntAssignment
dest_io_apic_id=1
dest_io_apic_intin=0
eventq_index=0
interrupt_type=ExtInt
polarity=ConformPolarity
source_bus_id=1
source_bus_irq=13
trigger=ConformTrigger

[system.intel_mp_table.base_entries30]
type=X86IntelMPIOIntAssignment
dest_io_apic_id=1
dest_io_apic_intin=13
eventq_index=0
interrupt_type=INT
polarity=ConformPolarity
source_bus_id=1
source_bus_irq=13
trigger=ConformTrigger

[system.intel_mp_table.base_entries31]
type=X86IntelMPIOIntAssignment
dest_io_apic_id=1
dest_io_apic_intin=0
eventq_index=0
interrupt_type=ExtInt
polarity=ConformPolarity
source_bus_id=1
source_bus_irq=14
trigger=ConformTrigger

[system.intel_mp_table.base_entries32]
type=X86IntelMPIOIntAssignment
dest_io_apic_id=1
dest_io_apic_intin=14
eventq_index=0
interrupt_type=INT
polarity=ConformPolarity
source_bus_id=1
source_bus_irq=14
trigger=ConformTrigger

[system.intel_mp_table.ext_entries]
type=X86IntelMPBusHierarchy
bus_id=1
eventq_index=0
parent_bus=0
subtractive_decode=true

[system.intrctrl]
type=IntrControl
eventq_index=0
sys=system

[system.iobus]
type=NoncoherentXBar
clk_domain=system.clk_domain
default_p_state=UNDEFINED
eventq_index=0
forward_latency=1
frontend_latency=2
p_state_clk_gate_bins=20
p_state_clk_gate_max=1000000000000
p_state_clk_gate_min=1000
power_model=
response_latency=2
use_default_range=false
width=16
default=system.pc.pci_host.pio
master=system.apicbridge.slave system.pc.south_bridge.cmos.pio system.pc.south_bridge.dma1.pio system.pc.south_bridge.ide.pio system.pc.south_bridge.keyboard.pio system.pc.south_bridge.pic1.pio system.pc.south_bridge.pic2.pio system.pc.south_bridge.pit.pio system.pc.south_bridge.speaker.pio system.pc.south_bridge.io_apic.pio system.pc.i_dont_exist1.pio system.pc.i_dont_exist2.pio system.pc.behind_pci.pio system.pc.com_1.pio system.pc.fake_com_2.pio system.pc.fake_com_3.pio system.pc.fake_com_4.pio system.pc.fake_floppy.pio system.iocache.cpu_side
slave=system.bridge.master system.pc.south_bridge.ide.dma system.pc.south_bridge.io_apic.int_master

[system.iocache]
type=Cache
children=replacement_policy tags
addr_ranges=0:104857600 3221225472:3222274048 4294967296:8589934592
assoc=8
clk_domain=system.clk_domain
clusivity=mostly_incl
compressor=Null
data_latency=50
default_p_state=UNDEFINED
demand_mshr_reserve=1
eventq_index=0
is_read_only=false
max_miss_count=0
mshrs=20
p_state_clk_gate_bins=20
p_state_clk_gate_max=1000000000000
p_state_clk_gate_min=1000
power_model=
prefetch_on_access=false
prefetcher=Null
replacement_policy=system.iocache.replacement_policy
response_latency=50
sequential_access=false
size=1024
system=system
tag_latency=50
tags=system.iocache.tags
tgts_per_mshr=12
warmup_percentage=0
write_allocator=Null
write_buffers=8
writeback_clean=false
cpu_side=system.iobus.master[18]
mem_side=system.membus.slave[2]

[system.iocache.replacement_policy]
type=LRURP
eventq_index=0

[system.iocache.tags]
type=BaseSetAssoc
children=indexing_policy
assoc=8
block_size=64
clk_domain=system.clk_domain
default_p_state=UNDEFINED
entry_size=64
eventq_index=0
indexing_policy=system.iocache.tags.indexing_policy
p_state_clk_gate_bins=20
p_state_clk_gate_max=1000000000000
p_state_clk_gate_min=1000
power_model=
replacement_policy=system.iocache.replacement_policy
sequential_access=false
size=1024
system=system
tag_latency=50
warmup_percentage=0

[system.iocache.tags.indexing_policy]
type=SetAssociative
assoc=8
entry_size=64
eventq_index=0
size=1024

[system.kvm_vm]
type=KvmVM
coalescedMMIO=
eventq_index=0

[system.l3bus]
type=CoherentXBar
children=snoop_filter
clk_domain=system.clk_domain
default_p_state=UNDEFINED
eventq_index=0
forward_latency=0
frontend_latency=1
max_outstanding_snoops=512
max_routing_table_size=512
p_state_clk_gate_bins=20
p_state_clk_gate_max=1000000000000
p_state_clk_gate_min=1000